10
Properties=species:S:1:pos:R:3 pbc="F F F"
H        4.53523922       1.89694202       2.70546794
H        1.00000000       2.47940302       1.36996901
H        4.58381081       1.00000000       1.14605403
H        5.55879879       2.47935295       1.36996901
H        1.97495699       1.00002897       1.14605606
H        2.02354693       1.89697194       2.70546889
S        3.27940607       3.02516508       1.00000000
O        3.27942395       4.29406881       1.81846201
C        4.61893177       1.98430502       1.61935997
C        1.93985605       1.98433495       1.61936104
